.subckt mextram_ckt c b e s dt

q1 c b e s dt mextram

.model mextram pnp level=504
+ tref = (25.00)
+ dta = (0.000)
+ exmod = (1.000)
+ exphi = (1.000)
+ exavl = (0.000)
+ is = (22.0e-18)
+ ik = (0.1)
+ ver = (2.5)
+ vef = (44.0)
+ bf = (215.0)
+ ibf = (2.7e-15)
+ mlf = (2.000)
+ xibi = (0.0)
+ bri = (7.00)
+ ibr = (1.0e-015)
+ vlr = (0.2)
+ xext = (0.63)
+ wavl = (1.1e-006)
+ vavl = (3.0)
+ sfh = (0.3)
+ re = (5.0)
+ rbc = (23.0)
+ rbv = (18.0)
+ rcc = (12.0)
+ rcv = (150.0)
+ scrcv = (1250.0)
+ ihc = (4.000e-003)
+ axi = (0.3)
+ cje = (73.0e-015)
+ vde = (950.0e-003)
+ pe = (400.0e-003)
+ xcje = (400.0e-003)
+ cbeo = (0.000)
+ cjc = (78.0e-015)
+ vdc = (680.0e-003)
+ pc = (500.0e-003)
+ xp = (350.0e-003)
+ mc = (500.0e-003)
+ xcjc = (32.0e-003)
+ cbco = (0.000)
+ mtau = (1.0)
+ taue = (2.0e-012)
+ taub = (4.2e-12)
+ tepi = (41.0e-12)
+ taur = (520.0e-012)
+ deg = (0.01)
+ xrec = (0.1)
+ aqbo = (300.0e-003)
+ ae = (0.0e-003)
+ ab = (1.0)
+ aex = (620.0e-003)
+ aepi = (2.5)
+ ac = (2.0)
+ dvgbf = (50.0e-003)
+ dvgbr = (45.00e-003)
+ vgb = (1.17)
+ vgc = (1.18)
+ vgj = (1.15)
+ dvgte = (50.0e-003)
+ af = (2.000)
+ kf = (20.0e-012)
+ kfn = (20.0e-012)
+ kavl = (1.000)
+ iss = (48.0e-18)
+ iks = (250.e-006)
+ cjs = (315.0e-015)
+ vds = (620.0e-003)
+ ps = (340.0e-003)
+ vgs = (1.20)
+ as = (1.580)
+ rth = (300.0)
+ ath = (1.300)
+ cth = (3.0e-09)
+ mult = (1.000)

.ends
